Version 4
SHEET 1 1204 1104
WIRE -176 -64 -336 -64
WIRE -32 -64 -96 -64
WIRE 816 -48 656 -48
WIRE 960 -48 896 -48
WIRE -336 48 -336 -64
WIRE -288 48 -336 48
WIRE -144 48 -208 48
WIRE -32 48 -32 -64
WIRE -32 48 -80 48
WIRE 656 64 656 -48
WIRE 704 64 656 64
WIRE 848 64 784 64
WIRE 960 64 960 -48
WIRE 960 64 912 64
WIRE -336 144 -336 48
WIRE -288 144 -336 144
WIRE -144 144 -208 144
WIRE -32 144 -32 48
WIRE -32 144 -80 144
WIRE -336 160 -336 144
WIRE -336 160 -544 160
WIRE -32 160 -32 144
WIRE 208 160 -32 160
WIRE 544 160 336 160
WIRE 656 160 656 64
WIRE 656 160 624 160
WIRE 704 160 656 160
WIRE 848 160 784 160
WIRE 960 160 960 64
WIRE 960 160 912 160
WIRE 1072 160 960 160
WIRE -544 192 -544 160
WIRE 336 192 336 160
WIRE 208 208 208 160
WIRE 1072 208 1072 160
WIRE -336 240 -336 160
WIRE -288 240 -336 240
WIRE -144 240 -208 240
WIRE -32 240 -32 160
WIRE -32 240 -80 240
WIRE 656 256 656 160
WIRE 704 256 656 256
WIRE 848 256 784 256
WIRE 960 256 960 160
WIRE 960 256 912 256
WIRE -336 336 -336 240
WIRE -288 336 -336 336
WIRE -144 336 -208 336
WIRE -32 336 -32 240
WIRE -32 336 -80 336
WIRE 656 352 656 256
WIRE 704 352 656 352
WIRE 848 352 784 352
WIRE 960 352 960 256
WIRE 960 352 912 352
WIRE -336 432 -336 336
WIRE -288 432 -336 432
WIRE -144 432 -208 432
WIRE -32 432 -32 336
WIRE -32 432 -80 432
WIRE 656 448 656 352
WIRE 704 448 656 448
WIRE 848 448 784 448
WIRE 960 448 960 352
WIRE 960 448 912 448
FLAG -544 272 0
FLAG 208 288 0
FLAG 336 272 0
FLAG 1072 208 0
SYMBOL res -80 -80 R90
WINDOW 0 0 56 VBottom 2
WINDOW 3 32 56 VTop 2
SYMATTR InstName R0
SYMATTR Value 3.9928k
SYMBOL res -192 32 R90
WINDOW 0 0 56 VBottom 2
WINDOW 3 32 56 VTop 2
SYMATTR InstName R1
SYMATTR Value 1.4538k
SYMBOL res -192 128 R90
WINDOW 0 0 56 VBottom 2
WINDOW 3 32 56 VTop 2
SYMATTR InstName R2
SYMATTR Value 4.6372k
SYMBOL res -192 224 R90
WINDOW 0 0 56 VBottom 2
WINDOW 3 32 56 VTop 2
SYMATTR InstName R3
SYMATTR Value 7.2915k
SYMBOL cap -80 32 R90
WINDOW 0 0 32 VBottom 2
WINDOW 3 32 32 VTop 2
SYMATTR InstName C1
SYMATTR Value 4.033u
SYMBOL cap -80 128 R90
WINDOW 0 0 32 VBottom 2
WINDOW 3 32 32 VTop 2
SYMATTR InstName C2
SYMATTR Value 8.964u
SYMBOL cap -80 224 R90
WINDOW 0 0 32 VBottom 2
WINDOW 3 32 32 VTop 2
SYMATTR InstName C3
SYMATTR Value 19.477u
SYMBOL cap -80 320 R90
WINDOW 0 0 32 VBottom 2
WINDOW 3 32 32 VTop 2
SYMATTR InstName C4
SYMATTR Value 57.566u
SYMBOL cap -80 416 R90
WINDOW 0 0 32 VBottom 2
WINDOW 3 32 32 VTop 2
SYMATTR InstName C5
SYMATTR Value 408u
SYMBOL res -192 320 R90
WINDOW 0 0 56 VBottom 2
WINDOW 3 32 56 VTop 2
SYMATTR InstName R4
SYMATTR Value 8.0789k
SYMBOL res -192 416 R90
WINDOW 0 0 56 VBottom 2
WINDOW 3 32 56 VTop 2
SYMATTR InstName R5
SYMATTR Value 6.1943k
SYMBOL Misc\\signal -544 176 R0
WINDOW 123 24 132 Left 2
WINDOW 39 0 0 Left 0
SYMATTR Value2 AC 1
SYMATTR InstName V1
SYMBOL res 192 192 R0
SYMATTR InstName R6
SYMATTR Value 1.59k
SYMBOL Misc\\signal 336 176 R0
WINDOW 123 24 132 Left 2
WINDOW 39 0 0 Left 0
SYMATTR Value2 AC 1
SYMATTR InstName V2
SYMBOL res 912 -64 R90
WINDOW 0 0 56 VBottom 2
WINDOW 3 32 56 VTop 2
SYMATTR InstName R14
SYMATTR Value 3.9928k
SYMBOL res 800 48 R90
WINDOW 0 0 56 VBottom 2
WINDOW 3 32 56 VTop 2
SYMATTR InstName R15
SYMATTR Value 1.4538k
SYMBOL res 800 144 R90
WINDOW 0 0 56 VBottom 2
WINDOW 3 32 56 VTop 2
SYMATTR InstName R16
SYMATTR Value 4.6372k
SYMBOL res 800 240 R90
WINDOW 0 0 56 VBottom 2
WINDOW 3 32 56 VTop 2
SYMATTR InstName R17
SYMATTR Value 7.2915k
SYMBOL cap 912 48 R90
WINDOW 0 0 32 VBottom 2
WINDOW 3 32 32 VTop 2
SYMATTR InstName C11
SYMATTR Value 4.033u
SYMBOL cap 912 144 R90
WINDOW 0 0 32 VBottom 2
WINDOW 3 32 32 VTop 2
SYMATTR InstName C12
SYMATTR Value 8.964u
SYMBOL cap 912 240 R90
WINDOW 0 0 32 VBottom 2
WINDOW 3 32 32 VTop 2
SYMATTR InstName C13
SYMATTR Value 19.477u
SYMBOL cap 912 336 R90
WINDOW 0 0 32 VBottom 2
WINDOW 3 32 32 VTop 2
SYMATTR InstName C14
SYMATTR Value 57.566u
SYMBOL cap 912 432 R90
WINDOW 0 0 32 VBottom 2
WINDOW 3 32 32 VTop 2
SYMATTR InstName C15
SYMATTR Value 408u
SYMBOL res 800 336 R90
WINDOW 0 0 56 VBottom 2
WINDOW 3 32 56 VTop 2
SYMATTR InstName R18
SYMATTR Value 8.0789k
SYMBOL res 800 432 R90
WINDOW 0 0 56 VBottom 2
WINDOW 3 32 56 VTop 2
SYMATTR InstName R19
SYMATTR Value 6.1943k
SYMBOL res 640 144 R90
WINDOW 0 0 56 VBottom 2
WINDOW 3 32 56 VTop 2
SYMATTR InstName R7
SYMATTR Value 1.56k
TEXT -1352 -416 Left 2 ;1HZ\nrzero_fii =\n \n   3.9928e+03\n \n \nr_fii =\n \n   1.4538e+03\n \n \nc_fii =\n \n   4.0329e-06\n \n \nr_fii =\n \n   4.6372e+03\n \n \nc_fii =\n \n   8.9644e-06\n \n \nr_fii =\n \n   7.2915e+03\n \n \nc_fii =\n \n   1.9477e-05\n \n \nr_fii =\n \n   8.0789e+03\n \n \nc_fii =\n \n   5.7566e-05\n \n \nr_fii =\n \n   6.1943e+03\n \n \nc_fii =\n \n   4.0821e-04
TEXT -272 544 Left 2 !.ac dec 100 0.01 10k
