Version 4
SHEET 1 1708 680
WIRE 1424 -176 1408 -176
WIRE 1536 -176 1504 -176
WIRE 1312 -144 1296 -144
WIRE 1408 -144 1408 -176
WIRE 1408 -144 1392 -144
WIRE 1296 -128 1296 -144
WIRE -272 -96 -272 -112
WIRE -208 -96 -272 -96
WIRE -272 -80 -272 -96
WIRE -208 -80 -208 -96
WIRE 448 -64 304 -64
WIRE 1408 -64 1408 -144
WIRE 1424 -64 1408 -64
WIRE 1536 -48 1536 -176
WIRE 1536 -48 1488 -48
WIRE 1584 -48 1536 -48
WIRE 1312 -32 1168 -32
WIRE 1424 -32 1312 -32
WIRE 304 -16 304 -64
WIRE 336 -16 304 -16
WIRE 448 0 448 -64
WIRE 448 0 400 0
WIRE 576 0 528 0
WIRE 656 0 576 0
WIRE 768 0 736 0
WIRE 784 0 768 0
WIRE 896 0 864 0
WIRE 912 0 896 0
WIRE 1024 0 992 0
WIRE 1040 0 1024 0
WIRE 1168 0 1168 -32
WIRE 1168 0 1120 0
WIRE 128 16 -32 16
WIRE 256 16 192 16
WIRE 336 16 256 16
WIRE 1168 16 1168 0
WIRE 576 32 576 0
WIRE 768 32 768 0
WIRE 896 32 896 0
WIRE 1024 32 1024 0
WIRE -32 64 -32 16
WIRE 256 112 256 96
WIRE 576 144 576 96
WIRE 768 144 768 96
WIRE 768 144 576 144
WIRE 896 144 896 96
WIRE 896 144 768 144
WIRE 1024 144 1024 96
WIRE 1024 144 896 144
WIRE 1168 144 1168 96
WIRE 1168 144 1024 144
WIRE -32 176 -32 144
WIRE 576 176 576 144
FLAG -32 176 0
FLAG 1312 -32 outBP
FLAG -208 -80 0
FLAG -272 -192 Vcc
FLAG -272 0 Vss
FLAG 1456 -16 Vss
FLAG 1456 -80 Vcc
FLAG 1296 -128 0
FLAG 1584 -48 out
FLAG 256 112 0
FLAG 368 -32 Vcc
FLAG 368 32 Vss
FLAG 576 176 0
SYMBOL Misc\\signal -32 48 R0
WINDOW 3 -409 44 Left 2
WINDOW 123 -409 68 Left 2
WINDOW 39 0 0 Left 0
SYMATTR Value PULSE(0 1 0 1n 1n 1m 5m)
SYMATTR Value2 AC 1
SYMATTR InstName V1
SYMBOL Misc\\battery -272 -208 R0
WINDOW 0 -86 58 Left 2
WINDOW 3 48 47 Left 2
WINDOW 123 0 0 Left 0
WINDOW 39 0 0 Left 0
SYMATTR InstName Vcc
SYMATTR Value +5
SYMBOL Misc\\battery -272 -96 R0
WINDOW 0 -85 55 Left 2
WINDOW 3 42 53 Left 2
WINDOW 123 0 0 Left 0
WINDOW 39 0 0 Left 0
SYMATTR InstName Vss
SYMATTR Value +5
SYMBOL AutoGenerated\\AD8009an 1456 -48 R0
SYMATTR InstName U4
SYMBOL res 1520 -192 R90
WINDOW 0 0 56 VBottom 2
WINDOW 3 32 56 VTop 2
SYMATTR InstName R5
SYMATTR Value 3.01K
SYMATTR SpiceLine tol=1 pwr=0.1
SYMBOL res 1408 -160 R90
WINDOW 0 0 56 VBottom 2
WINDOW 3 32 56 VTop 2
SYMATTR InstName R6
SYMATTR Value 301
SYMATTR SpiceLine tol=1 pwr=0.1
SYMBOL res 544 -16 R90
WINDOW 0 0 56 VBottom 2
WINDOW 3 32 56 VTop 2
SYMATTR InstName R3
SYMATTR Value 301
SYMATTR SpiceLine tol=1 pwr=0.1
SYMBOL cap 560 32 R0
SYMATTR InstName C6
SYMATTR Value 1000f
SYMATTR SpiceLine V=25 Irms=0 Rser=0 Lser=0 mfg="Murata" pn="GRM0335C1E1R0CA01" type="C0G"
SYMBOL ind 752 -16 R90
WINDOW 0 5 56 VBottom 2
WINDOW 3 32 56 VTop 2
SYMATTR InstName L5
SYMATTR Value 100n
SYMATTR SpiceLine Ipk=4 Rser=0.015 Rpar=0 Cpar=0 mfg="Murata" pn="LQM2MPZR10MJHL"
SYMBOL ind 880 -16 R90
WINDOW 0 5 56 VBottom 2
WINDOW 3 32 56 VTop 2
SYMATTR InstName L6
SYMATTR Value 100n
SYMATTR SpiceLine Ipk=4 Rser=0.015 Rpar=0 Cpar=0 mfg="Murata" pn="LQM2MPZR10MJHL"
SYMBOL ind 1008 -16 R90
WINDOW 0 5 56 VBottom 2
WINDOW 3 32 56 VTop 2
SYMATTR InstName L7
SYMATTR Value 150n
SYMATTR SpiceLine Ipk=6.2 Rser=0.012 Rpar=0 Cpar=0 mfg="Murata" pn="DFE201612PD-R15M=P2"
SYMBOL ind 1136 -16 R90
WINDOW 0 5 56 VBottom 2
WINDOW 3 32 56 VTop 2
SYMATTR InstName L8
SYMATTR Value 390n
SYMATTR SpiceLine Ipk=0.3 Rser=0.6 Rpar=36.738 Cpar=0 mfg="Coilcraft" pn="0402AF-391"
SYMBOL cap 752 32 R0
SYMATTR InstName C7
SYMATTR Value 1000f
SYMATTR SpiceLine V=25 Irms=0 Rser=0 Lser=0 mfg="Murata" pn="GRM0335C1E1R0CA01" type="C0G"
SYMBOL cap 880 32 R0
SYMATTR InstName C8
SYMATTR Value 1.5p
SYMATTR SpiceLine V=25 Irms=0 Rser=0 Lser=0 mfg="Murata" pn="GCM0335C1E1R5CA16" type="C0G"
SYMBOL cap 1008 32 R0
SYMATTR InstName C9
SYMATTR Value 2.2p
SYMATTR SpiceLine V=16 Irms=0 Rser=0.374271 Lser=239.727p mfg="Würth Elektronik" pn="885012005021 WCAP-CSGP 0402" type="NP0"
SYMBOL res 1152 0 R0
SYMATTR InstName R7
SYMATTR Value 301
SYMATTR SpiceLine tol=1 pwr=0.1
SYMBOL cap 192 0 R90
WINDOW 0 0 32 VBottom 2
WINDOW 3 32 32 VTop 2
SYMATTR InstName C1
SYMATTR Value 3.6p
SYMATTR SpiceLine V=25 Irms=0 Rser=0 Lser=0 mfg="Murata" pn="GRM0335C1E3R6CA01" type="C0G"
SYMBOL res 240 0 R0
SYMATTR InstName R1
SYMATTR Value 301
SYMATTR SpiceLine tol=1 pwr=0.1
SYMBOL AutoGenerated\\AD8009an 368 0 R0
SYMATTR InstName U1
TEXT -392 -304 Left 2 !;ac dec 100 10k 100G
TEXT -392 -272 Left 2 !.tran 0 5010u 4990u 100n startup uic
TEXT 176 -288 Left 2 ;8° Order Low-Pass Bessel filter 260Mhz
TEXT 880 -288 Left 2 ;1° Order High-Pass filter 150Mhz
TEXT 1376 -288 Left 2 ;Final Gain Stage
